/*---------------------------------------------------------------------------*\
| =========                 |                                                 |
| \\      /  F ield         | OpenFOAM: The Open Source CFD Toolbox           |
|  \\    /   O peration     | Version:  2.2.x                                 |
|   \\  /    A nd           | Web:      www.OpenFOAM.org                      |
|    \\/     M anipulation  |                                                 |
\*---------------------------------------------------------------------------*/
Build  : 2.2.x-8a983dba63b2
Exec   : changeDictionary
Date   : Feb 18 2014
Time   : 09:10:23
Host   : "nami.win.foi.se"
PID    : 28231
Case   : /home/soft/OpenFOAM/foamGroove/src/modalDisplacementPointPatchVectorField/testCases/rod
nProcs : 1
sigFpe : Enabling floating point exception trapping (FOAM_SIGFPE).
fileModificationChecking : Monitoring run-time modified files using timeStampMaster
allowSystemOperations : Disallowing user-supplied system call operations

// * * * * * * * * * * * * * * * * * * * * * * * * * * * * * * * * * * * * * //
Create time

sigWriteNow : Enabling writing upon signal 10
sigStopAtWriteNow : Enabling writing and stopping upon signal 11
Create mesh for time = 0

Read dictionary changeDictionaryDict with replacements for dictionaries 1(boundary)
Reading polyMesh/boundary file to extract patch names
Loaded dictionary boundary with entries 
5
(
slipSides
inlet
outlet
lowerWall
slipRoof
)

Replacing entries in dictionary boundary
Special handling of boundary as polyMesh/boundary file.
Merging entries from 
11
(
.*
(.*[Ww]all.*|.*[Hh]ull.*)
(.*[Ss]lip.*)
.*2[Dd].*
.*[Ff]ront.*[Bb]ack.*
(.*[Ii]nlet.*|.*[Ii]nflow.*)
(.*[Oo]utlet.*|.*[Oo]utflow.*)
(.*[Oo]pening.*|.*[Aa]mbien.*|.*[Aa]tmos.*)
(.*[Ff]ree[Ss]tream.*|.*[Ff]ar[Ff]ield.*)
(.*[Ss]ymmetr.*)
(.*procBoundary.*)
)

fieldDict:
{
    slipSides
    {
        type            wall;
        nFaces          600;
        startFace       16900;
        inGroups        1 ( slipGroup );
    }
    inlet
    {
        type            patch;
        nFaces          200;
        startFace       17500;
        inGroups        1 ( inletGroup );
    }
    outlet
    {
        type            patch;
        nFaces          200;
        startFace       17700;
        inGroups        1 ( outflowGroup );
    }
    lowerWall
    {
        type            wall;
        nFaces          600;
        startFace       17900;
        inGroups        1 ( wallGroup );
    }
    slipRoof
    {
        type            wall;
        nFaces          600;
        startFace       18500;
        inGroups        1 ( slipGroup );
    }
}

Writing modified boundary

End

