/*---------------------------------------------------------------------------*\
| =========                 |                                                 |
| \\      /  F ield         | OpenFOAM: The Open Source CFD Toolbox           |
|  \\    /   O peration     | Version:  2.2.x                                 |
|   \\  /    A nd           | Web:      www.OpenFOAM.org                      |
|    \\/     M anipulation  |                                                 |
\*---------------------------------------------------------------------------*/
Build  : 2.2.x-d803bdc608f0
Exec   : changeDictionaryLight
Date   : Feb 17 2014
Time   : 20:53:52
Host   : "rail.localdomain"
PID    : 29429
Case   : /home/soft/OpenFOAM/foamGroove/src/modalDisplacementPointPatchVectorField/testCases/rod
nProcs : 1
sigFpe : Enabling floating point exception trapping (FOAM_SIGFPE).
fileModificationChecking : Monitoring run-time modified files using timeStampMaster
allowSystemOperations : Disallowing user-supplied system call operations

// * * * * * * * * * * * * * * * * * * * * * * * * * * * * * * * * * * * * * //
Create time

Create mesh for time = 0

Read dictionary changeDictionaryDict with replacements for dictionaries 1(boundary)
Reading polyMesh/boundary file to extract patch names
Loaded dictionary boundary with entries 
6
(
slipSides
inlet
outlet
lowerWall
slipRoof
rod_wall
)

Extracted patch groups:
    group inletGroup with patches 1(inlet)
    group outflowGroup with patches 1(outlet)
    group slipGroup with patches 
2
(
slipSides
slipRoof
)

    group wallGroup with patches 
2
(
lowerWall
rod_wall
)

Replacing entries in dictionary boundary
Special handling of boundary as polyMesh/boundary file.
Merging entries from 
11
(
.*
(.*[Ww]all.*|.*[Hh]ull.*)
(.*[Ss]lip.*)
.*2[Dd].*
.*[Ff]ront.*[Bb]ack.*
(.*[Ii]nlet.*|.*[Ii]nflow.*)
(.*[Oo]utlet.*|.*[Oo]utflow.*)
(.*[Oo]pening.*|.*[Aa]mbien.*|.*[Aa]tmos.*)
(.*[Ff]ree[Ss]tream.*|.*[Ff]ar[Ff]ield.*)
(.*[Ss]ymmetr.*)
(.*procBoundary.*)
)

fieldDict:
{
    slipSides
    {
        type            wall;
        inGroups        1 ( slipGroup );
        nFaces          600;
        startFace       327568;
    }
    inlet
    {
        type            patch;
        inGroups        1 ( inletGroup );
        nFaces          200;
        startFace       328168;
    }
    outlet
    {
        type            patch;
        inGroups        1 ( outflowGroup );
        nFaces          200;
        startFace       328368;
    }
    lowerWall
    {
        type            wall;
        inGroups        1 ( wallGroup );
        nFaces          1700;
        startFace       328568;
    }
    slipRoof
    {
        type            wall;
        inGroups        1 ( slipGroup );
        nFaces          600;
        startFace       330268;
    }
    rod_wall
    {
        type            wall;
        inGroups        1 ( wallGroup );
        nFaces          7888;
        startFace       330868;
    }
}

Writing modified fieldDict boundary

End

