/*---------------------------------------------------------------------------*\
| =========                 |                                                 |
| \\      /  F ield         | OpenFOAM: The Open Source CFD Toolbox           |
|  \\    /   O peration     | Version:  2.2.x                                 |
|   \\  /    A nd           | Web:      www.OpenFOAM.org                      |
|    \\/     M anipulation  |                                                 |
\*---------------------------------------------------------------------------*/
Build  : 2.2.x-8a983dba63b2
Exec   : decomposePar -force
Date   : Feb 18 2014
Time   : 09:10:23
Host   : "nami.win.foi.se"
PID    : 28233
Case   : /home/soft/OpenFOAM/foamGroove/src/modalDisplacementPointPatchVectorField/testCases/rod
nProcs : 1
sigFpe : Enabling floating point exception trapping (FOAM_SIGFPE).
fileModificationChecking : Monitoring run-time modified files using timeStampMaster
allowSystemOperations : Disallowing user-supplied system call operations

// * * * * * * * * * * * * * * * * * * * * * * * * * * * * * * * * * * * * * //
Create time

sigWriteNow : Enabling writing upon signal 10
sigStopAtWriteNow : Enabling writing and stopping upon signal 11


Decomposing mesh region0

Create mesh

Calculating distribution of cells
Selecting decompositionMethod scotch

Finished decomposition in 0.03 s

Calculating original mesh data

Distributing cells to processors

Distributing faces to processors

Distributing points to processors

Constructing processor meshes
sigWriteNow : Enabling writing upon signal 10
sigStopAtWriteNow : Enabling writing and stopping upon signal 11

Processor 0
    Number of cells = 1500
    Number of faces shared with processor 1 = 150
    Number of faces shared with processor 2 = 100
    Number of processor patches = 2
    Number of processor faces = 250
    Number of boundary faces = 550
sigWriteNow : Enabling writing upon signal 10
sigStopAtWriteNow : Enabling writing and stopping upon signal 11

Processor 1
    Number of cells = 1500
    Number of faces shared with processor 0 = 150
    Number of faces shared with processor 3 = 100
    Number of processor patches = 2
    Number of processor faces = 250
    Number of boundary faces = 550
sigWriteNow : Enabling writing upon signal 10
sigStopAtWriteNow : Enabling writing and stopping upon signal 11

Processor 2
    Number of cells = 1500
    Number of faces shared with processor 0 = 100
    Number of faces shared with processor 3 = 150
    Number of processor patches = 2
    Number of processor faces = 250
    Number of boundary faces = 550
sigWriteNow : Enabling writing upon signal 10
sigStopAtWriteNow : Enabling writing and stopping upon signal 11

Processor 3
    Number of cells = 1500
    Number of faces shared with processor 1 = 100
    Number of faces shared with processor 2 = 150
    Number of processor patches = 2
    Number of processor faces = 250
    Number of boundary faces = 550

Number of processor faces = 500
Max number of cells = 1500 (0% above average 1500)
Max number of processor patches = 2 (0% above average 2)
Max number of faces between processors = 250 (0% above average 250)

Time = 0

Processor 0: field transfer
sigWriteNow : Enabling writing upon signal 10
sigStopAtWriteNow : Enabling writing and stopping upon signal 11
Processor 1: field transfer
sigWriteNow : Enabling writing upon signal 10
sigStopAtWriteNow : Enabling writing and stopping upon signal 11
Processor 2: field transfer
sigWriteNow : Enabling writing upon signal 10
sigStopAtWriteNow : Enabling writing and stopping upon signal 11
Processor 3: field transfer
sigWriteNow : Enabling writing upon signal 10
sigStopAtWriteNow : Enabling writing and stopping upon signal 11

End.

